*SPEF "ieee 1481-1999"
*DESIGN "systolic_top_uart_4parallel_q8_24"
*DATE "04:42:01 Monday January 20, 2025"
*VENDOR "The OpenROAD Project"
*PROGRAM "OpenROAD"
*VERSION "v2.0-13348-gd423155d6"
*DESIGN_FLOW "NAME_SCOPE LOCAL" "PIN_CAP NONE"
*DIVIDER /
*DELIMITER :
*BUS_DELIMITER []
*T_UNIT 1 NS
*C_UNIT 1 PF
*R_UNIT 1 OHM
*L_UNIT 1 HENRY

*NAME_MAP
*3 busy_out
*4 clk_in
*5 done_out
*6 opcode_in0
*7 opcode_in1
*8 opcode_in2
*9 opcode_in3
*10 out4
*11 out5
*12 out6
*13 out7
*14 out8
*15 rst_in
*16 rx_out
*17 start_in
*18 tx_in
*19 _00_
*20 _01_
*21 _02_
*22 _03_
*23 _04_
*24 fsm_state\[0\]
*25 internal_busy
*26 net1
*27 net10
*28 net2
*29 net3
*30 net4
*31 net5
*32 net6
*33 net7
*34 net8
*35 net9
*36 FILLER_0_0_1005
*37 FILLER_0_0_1009
*38 FILLER_0_0_1021
*39 FILLER_0_0_1033
*40 FILLER_0_0_1037
*41 FILLER_0_0_1062
*42 FILLER_0_0_1068
*43 FILLER_0_0_1074
*44 FILLER_0_0_1081
*45 FILLER_0_0_1089
*46 FILLER_0_0_109
*47 FILLER_0_0_1093
*48 FILLER_0_0_1105
*49 FILLER_0_0_1117
*50 FILLER_0_0_1121
*51 FILLER_0_0_113
*52 FILLER_0_0_1133
*53 FILLER_0_0_1145
*54 FILLER_0_0_1149
*55 FILLER_0_0_1161
*56 FILLER_0_0_1173
*57 FILLER_0_0_1177
*58 FILLER_0_0_1189
*59 FILLER_0_0_1201
*60 FILLER_0_0_1205
*61 FILLER_0_0_1217
*62 FILLER_0_0_1229
*63 FILLER_0_0_1233
*64 FILLER_0_0_1245
*65 FILLER_0_0_125
*66 FILLER_0_0_1257
*67 FILLER_0_0_1261
*68 FILLER_0_0_1273
*69 FILLER_0_0_1285
*70 FILLER_0_0_1289
*71 FILLER_0_0_1301
*72 FILLER_0_0_1313
*73 FILLER_0_0_1317
*74 FILLER_0_0_1329
*75 FILLER_0_0_1341
*76 FILLER_0_0_1345
*77 FILLER_0_0_1357
*78 FILLER_0_0_1369
*79 FILLER_0_0_137
*80 FILLER_0_0_1373
*81 FILLER_0_0_1385
*82 FILLER_0_0_1397
*83 FILLER_0_0_1401
*84 FILLER_0_0_141
*85 FILLER_0_0_1413
*86 FILLER_0_0_1425
*87 FILLER_0_0_1429
*88 FILLER_0_0_1441
*89 FILLER_0_0_1453
*90 FILLER_0_0_1457
*91 FILLER_0_0_1469
*92 FILLER_0_0_1481
*93 FILLER_0_0_1485
*94 FILLER_0_0_1497
*95 FILLER_0_0_15
*96 FILLER_0_0_1509
*97 FILLER_0_0_1513
*98 FILLER_0_0_1525
*99 FILLER_0_0_153
*100 FILLER_0_0_1537
*101 FILLER_0_0_1541
*102 FILLER_0_0_1553
*103 FILLER_0_0_1565
*104 FILLER_0_0_1569
*105 FILLER_0_0_1581
*106 FILLER_0_0_1593
*107 FILLER_0_0_1597
*108 FILLER_0_0_1609
*109 FILLER_0_0_1621
*110 FILLER_0_0_1625
*111 FILLER_0_0_1637
*112 FILLER_0_0_1649
*113 FILLER_0_0_165
*114 FILLER_0_0_1653
*115 FILLER_0_0_1665
*116 FILLER_0_0_1677
*117 FILLER_0_0_1681
*118 FILLER_0_0_169
*119 FILLER_0_0_1693
*120 FILLER_0_0_1705
*121 FILLER_0_0_1709
*122 FILLER_0_0_1721
*123 FILLER_0_0_1733
*124 FILLER_0_0_1737
*125 FILLER_0_0_1749
*126 FILLER_0_0_1761
*127 FILLER_0_0_1765
*128 FILLER_0_0_1777
*129 FILLER_0_0_1789
*130 FILLER_0_0_1793
*131 FILLER_0_0_1805
*132 FILLER_0_0_181
*133 FILLER_0_0_1817
*134 FILLER_0_0_1821
*135 FILLER_0_0_1833
*136 FILLER_0_0_1845
*137 FILLER_0_0_1849
*138 FILLER_0_0_1861
*139 FILLER_0_0_1873
*140 FILLER_0_0_1877
*141 FILLER_0_0_1889
*142 FILLER_0_0_1901
*143 FILLER_0_0_1905
*144 FILLER_0_0_1917
*145 FILLER_0_0_1929
*146 FILLER_0_0_193
*147 FILLER_0_0_1933
*148 FILLER_0_0_1945
*149 FILLER_0_0_1957
*150 FILLER_0_0_1961
*151 FILLER_0_0_197
*152 FILLER_0_0_1973
*153 FILLER_0_0_1985
*154 FILLER_0_0_1989
*155 FILLER_0_0_2001
*156 FILLER_0_0_2013
*157 FILLER_0_0_2017
*158 FILLER_0_0_2029
*159 FILLER_0_0_2041
*160 FILLER_0_0_2045
*161 FILLER_0_0_2057
*162 FILLER_0_0_2069
*163 FILLER_0_0_2073
*164 FILLER_0_0_2085
*165 FILLER_0_0_209
*166 FILLER_0_0_2097
*167 FILLER_0_0_2101
*168 FILLER_0_0_2113
*169 FILLER_0_0_2125
*170 FILLER_0_0_2129
*171 FILLER_0_0_2141
*172 FILLER_0_0_2153
*173 FILLER_0_0_2157
*174 FILLER_0_0_221
*175 FILLER_0_0_225
*176 FILLER_0_0_237
*177 FILLER_0_0_249
*178 FILLER_0_0_253
*179 FILLER_0_0_265
*180 FILLER_0_0_27
*181 FILLER_0_0_277
*182 FILLER_0_0_281
*183 FILLER_0_0_29
*184 FILLER_0_0_293
*185 FILLER_0_0_3
*186 FILLER_0_0_305
*187 FILLER_0_0_309
*188 FILLER_0_0_321
*189 FILLER_0_0_333
*190 FILLER_0_0_337
*191 FILLER_0_0_349
*192 FILLER_0_0_361
*193 FILLER_0_0_365
*194 FILLER_0_0_377
*195 FILLER_0_0_389
*196 FILLER_0_0_393
*197 FILLER_0_0_405
*198 FILLER_0_0_41
*199 FILLER_0_0_417
*200 FILLER_0_0_421
*201 FILLER_0_0_433
*202 FILLER_0_0_445
*203 FILLER_0_0_449
*204 FILLER_0_0_461
*205 FILLER_0_0_473
*206 FILLER_0_0_477
*207 FILLER_0_0_489
*208 FILLER_0_0_501
*209 FILLER_0_0_505
*210 FILLER_0_0_517
*211 FILLER_0_0_529
*212 FILLER_0_0_53
*213 FILLER_0_0_533
*214 FILLER_0_0_545
*215 FILLER_0_0_557
*216 FILLER_0_0_561
*217 FILLER_0_0_57
*218 FILLER_0_0_573
*219 FILLER_0_0_585
*220 FILLER_0_0_589
*221 FILLER_0_0_601
*222 FILLER_0_0_613
*223 FILLER_0_0_617
*224 FILLER_0_0_629
*225 FILLER_0_0_641
*226 FILLER_0_0_645
*227 FILLER_0_0_657
*228 FILLER_0_0_669
*229 FILLER_0_0_673
*230 FILLER_0_0_685
*231 FILLER_0_0_69
*232 FILLER_0_0_697
*233 FILLER_0_0_701
*234 FILLER_0_0_713
*235 FILLER_0_0_725
*236 FILLER_0_0_729
*237 FILLER_0_0_741
*238 FILLER_0_0_753
*239 FILLER_0_0_757
*240 FILLER_0_0_769
*241 FILLER_0_0_781
*242 FILLER_0_0_785
*243 FILLER_0_0_797
*244 FILLER_0_0_809
*245 FILLER_0_0_81
*246 FILLER_0_0_813
*247 FILLER_0_0_825
*248 FILLER_0_0_837
*249 FILLER_0_0_841
*250 FILLER_0_0_85
*251 FILLER_0_0_853
*252 FILLER_0_0_865
*253 FILLER_0_0_869
*254 FILLER_0_0_881
*255 FILLER_0_0_893
*256 FILLER_0_0_897
*257 FILLER_0_0_909
*258 FILLER_0_0_921
*259 FILLER_0_0_925
*260 FILLER_0_0_937
*261 FILLER_0_0_949
*262 FILLER_0_0_953
*263 FILLER_0_0_965
*264 FILLER_0_0_97
*265 FILLER_0_0_977
*266 FILLER_0_0_981
*267 FILLER_0_0_993
*268 FILLER_0_100_1005
*269 FILLER_0_100_1017
*270 FILLER_0_100_1029
*271 FILLER_0_100_1035
*272 FILLER_0_100_1037
*273 FILLER_0_100_1049
*274 FILLER_0_100_1061
*275 FILLER_0_100_1073
*276 FILLER_0_100_1085
*277 FILLER_0_100_109
*278 FILLER_0_100_1091
*279 FILLER_0_100_1093
*280 FILLER_0_100_1105
*281 FILLER_0_100_1117
*282 FILLER_0_100_1129
*283 FILLER_0_100_1141
*284 FILLER_0_100_1147
*285 FILLER_0_100_1149
*286 FILLER_0_100_1161
*287 FILLER_0_100_1173
*288 FILLER_0_100_1185
*289 FILLER_0_100_1197
*290 FILLER_0_100_1203
*291 FILLER_0_100_1205
*292 FILLER_0_100_121
*293 FILLER_0_100_1217
*294 FILLER_0_100_1229
*295 FILLER_0_100_1241
*296 FILLER_0_100_1253
*297 FILLER_0_100_1259
*298 FILLER_0_100_1261
*299 FILLER_0_100_1273
*300 FILLER_0_100_1285
*301 FILLER_0_100_1297
*302 FILLER_0_100_1309
*303 FILLER_0_100_1315
*304 FILLER_0_100_1317
*305 FILLER_0_100_1329
*306 FILLER_0_100_133
*307 FILLER_0_100_1341
*308 FILLER_0_100_1353
*309 FILLER_0_100_1365
*310 FILLER_0_100_1371
*311 FILLER_0_100_1373
*312 FILLER_0_100_1385
*313 FILLER_0_100_139
*314 FILLER_0_100_1397
*315 FILLER_0_100_1409
*316 FILLER_0_100_141
*317 FILLER_0_100_1421
*318 FILLER_0_100_1427
*319 FILLER_0_100_1429
*320 FILLER_0_100_1441
*321 FILLER_0_100_1453
*322 FILLER_0_100_1465
*323 FILLER_0_100_1477
*324 FILLER_0_100_1483
*325 FILLER_0_100_1485
*326 FILLER_0_100_1497
*327 FILLER_0_100_15
*328 FILLER_0_100_1509
*329 FILLER_0_100_1521
*330 FILLER_0_100_153
*331 FILLER_0_100_1533
*332 FILLER_0_100_1539
*333 FILLER_0_100_1541
*334 FILLER_0_100_1553
*335 FILLER_0_100_1565
*336 FILLER_0_100_1577
*337 FILLER_0_100_1589
*338 FILLER_0_100_1595
*339 FILLER_0_100_1597
*340 FILLER_0_100_1609
*341 FILLER_0_100_1621
*342 FILLER_0_100_1633
*343 FILLER_0_100_1645
*344 FILLER_0_100_165
*345 FILLER_0_100_1651
*346 FILLER_0_100_1653
*347 FILLER_0_100_1665
*348 FILLER_0_100_1677
*349 FILLER_0_100_1689
*350 FILLER_0_100_1701
*351 FILLER_0_100_1707
*352 FILLER_0_100_1709
*353 FILLER_0_100_1721
*354 FILLER_0_100_1733
*355 FILLER_0_100_1745
*356 FILLER_0_100_1757
*357 FILLER_0_100_1763
*358 FILLER_0_100_1765
*359 FILLER_0_100_177
*360 FILLER_0_100_1777
*361 FILLER_0_100_1789
*362 FILLER_0_100_1801
*363 FILLER_0_100_1813
*364 FILLER_0_100_1819
*365 FILLER_0_100_1821
*366 FILLER_0_100_1833
*367 FILLER_0_100_1845
*368 FILLER_0_100_1857
*369 FILLER_0_100_1869
*370 FILLER_0_100_1875
*371 FILLER_0_100_1877
*372 FILLER_0_100_1889
*373 FILLER_0_100_189
*374 FILLER_0_100_1901
*375 FILLER_0_100_1913
*376 FILLER_0_100_1925
*377 FILLER_0_100_1931
*378 FILLER_0_100_1933
*379 FILLER_0_100_1945
*380 FILLER_0_100_195
*381 FILLER_0_100_1957
*382 FILLER_0_100_1969
*383 FILLER_0_100_197
*384 FILLER_0_100_1981
*385 FILLER_0_100_1987
*386 FILLER_0_100_1989
*387 FILLER_0_100_2001
*388 FILLER_0_100_2013
*389 FILLER_0_100_2025
*390 FILLER_0_100_2037
*391 FILLER_0_100_2043
*392 FILLER_0_100_2045
*393 FILLER_0_100_2057
*394 FILLER_0_100_2069
*395 FILLER_0_100_2081
*396 FILLER_0_100_209
*397 FILLER_0_100_2093
*398 FILLER_0_100_2099
*399 FILLER_0_100_2101
*400 FILLER_0_100_2113
*401 FILLER_0_100_2125
*402 FILLER_0_100_2137
*403 FILLER_0_100_2149
*404 FILLER_0_100_2155
*405 FILLER_0_100_2157
*406 FILLER_0_100_221
*407 FILLER_0_100_233
*408 FILLER_0_100_245
*409 FILLER_0_100_251
*410 FILLER_0_100_253
*411 FILLER_0_100_265
*412 FILLER_0_100_27
*413 FILLER_0_100_277
*414 FILLER_0_100_289
*415 FILLER_0_100_29
*416 FILLER_0_100_3
*417 FILLER_0_100_301
*418 FILLER_0_100_307
*419 FILLER_0_100_309
*420 FILLER_0_100_321
*421 FILLER_0_100_333
*422 FILLER_0_100_345
*423 FILLER_0_100_357
*424 FILLER_0_100_363
*425 FILLER_0_100_365
*426 FILLER_0_100_377
*427 FILLER_0_100_389
*428 FILLER_0_100_401
*429 FILLER_0_100_41
*430 FILLER_0_100_413
*431 FILLER_0_100_419
*432 FILLER_0_100_421
*433 FILLER_0_100_433
*434 FILLER_0_100_445
*435 FILLER_0_100_457
*436 FILLER_0_100_469
*437 FILLER_0_100_475
*438 FILLER_0_100_477
*439 FILLER_0_100_489
*440 FILLER_0_100_501
*441 FILLER_0_100_513
*442 FILLER_0_100_525
*443 FILLER_0_100_53
*444 FILLER_0_100_531
*445 FILLER_0_100_533
*446 FILLER_0_100_545
*447 FILLER_0_100_557
*448 FILLER_0_100_569
*449 FILLER_0_100_581
*450 FILLER_0_100_587
*451 FILLER_0_100_589
*452 FILLER_0_100_601
*453 FILLER_0_100_613
*454 FILLER_0_100_625
*455 FILLER_0_100_637
*456 FILLER_0_100_643
*457 FILLER_0_100_645
*458 FILLER_0_100_65
*459 FILLER_0_100_657
*460 FILLER_0_100_669
*461 FILLER_0_100_681
*462 FILLER_0_100_693
*463 FILLER_0_100_699
*464 FILLER_0_100_701
*465 FILLER_0_100_713
*466 FILLER_0_100_725
*467 FILLER_0_100_737
*468 FILLER_0_100_749
*469 FILLER_0_100_755
*470 FILLER_0_100_757
*471 FILLER_0_100_769
*472 FILLER_0_100_77
*473 FILLER_0_100_781
*474 FILLER_0_100_793
*475 FILLER_0_100_805
*476 FILLER_0_100_811
*477 FILLER_0_100_813
*478 FILLER_0_100_825
*479 FILLER_0_100_83
*480 FILLER_0_100_837
*481 FILLER_0_100_849
*482 FILLER_0_100_85
*483 FILLER_0_100_861
*484 FILLER_0_100_867
*485 FILLER_0_100_869
*486 FILLER_0_100_881
*487 FILLER_0_100_893
*488 FILLER_0_100_905
*489 FILLER_0_100_917
*490 FILLER_0_100_923
*491 FILLER_0_100_925
*492 FILLER_0_100_937
*493 FILLER_0_100_949
*494 FILLER_0_100_961
*495 FILLER_0_100_97
*496 FILLER_0_100_973
*497 FILLER_0_100_979
*498 FILLER_0_100_981
*499 FILLER_0_100_993
*500 FILLER_0_101_1001
*501 FILLER_0_101_1007
*502 FILLER_0_101_1009
*503 FILLER_0_101_1021
*504 FILLER_0_101_1033
*505 FILLER_0_101_1045
*506 FILLER_0_101_105
*507 FILLER_0_101_1057
*508 FILLER_0_101_1063
*509 FILLER_0_101_1065
*510 FILLER_0_101_1077
*511 FILLER_0_101_1089
*512 FILLER_0_101_1101
*513 FILLER_0_101_111
*514 FILLER_0_101_1113
*515 FILLER_0_101_1119
*516 FILLER_0_101_1121
*517 FILLER_0_101_113
*518 FILLER_0_101_1133
*519 FILLER_0_101_1145
*520 FILLER_0_101_1157
*521 FILLER_0_101_1169
*522 FILLER_0_101_1175
*523 FILLER_0_101_1177
*524 FILLER_0_101_1189
*525 FILLER_0_101_1201
*526 FILLER_0_101_1213
*527 FILLER_0_101_1225
*528 FILLER_0_101_1231
*529 FILLER_0_101_1233
*530 FILLER_0_101_1245
*531 FILLER_0_101_125
*532 FILLER_0_101_1257
*533 FILLER_0_101_1269
*534 FILLER_0_101_1281
*535 FILLER_0_101_1287
*536 FILLER_0_101_1289
*537 FILLER_0_101_1301
*538 FILLER_0_101_1313
*539 FILLER_0_101_1325
*540 FILLER_0_101_1337
*541 FILLER_0_101_1343
*542 FILLER_0_101_1345
*543 FILLER_0_101_1357
*544 FILLER_0_101_1369
*545 FILLER_0_101_137
*546 FILLER_0_101_1381
*547 FILLER_0_101_1393
*548 FILLER_0_101_1399
*549 FILLER_0_101_1401
*550 FILLER_0_101_1413
*551 FILLER_0_101_1425
*552 FILLER_0_101_1437
*553 FILLER_0_101_1449
*554 FILLER_0_101_1455
*555 FILLER_0_101_1457
*556 FILLER_0_101_1469
*557 FILLER_0_101_1481
*558 FILLER_0_101_149
*559 FILLER_0_101_1493
*560 FILLER_0_101_15
*561 FILLER_0_101_1505
*562 FILLER_0_101_1511
*563 FILLER_0_101_1513
*564 FILLER_0_101_1525
*565 FILLER_0_101_1537
*566 FILLER_0_101_1549
*567 FILLER_0_101_1561
*568 FILLER_0_101_1567
*569 FILLER_0_101_1569
*570 FILLER_0_101_1581
*571 FILLER_0_101_1593
*572 FILLER_0_101_1605
*573 FILLER_0_101_161
*574 FILLER_0_101_1617
*575 FILLER_0_101_1623
*576 FILLER_0_101_1625
*577 FILLER_0_101_1637
*578 FILLER_0_101_1649
*579 FILLER_0_101_1661
*580 FILLER_0_101_167
*581 FILLER_0_101_1673
*582 FILLER_0_101_1679
*583 FILLER_0_101_1681
*584 FILLER_0_101_169
*585 FILLER_0_101_1693
*586 FILLER_0_101_1705
*587 FILLER_0_101_1717
*588 FILLER_0_101_1729
*589 FILLER_0_101_1735
*590 FILLER_0_101_1737
*591 FILLER_0_101_1749
*592 FILLER_0_101_1761
*593 FILLER_0_101_1773
*594 FILLER_0_101_1785
*595 FILLER_0_101_1791
*596 FILLER_0_101_1793
*597 FILLER_0_101_1805
*598 FILLER_0_101_181
*599 FILLER_0_101_1817
*600 FILLER_0_101_1829
*601 FILLER_0_101_1841
*602 FILLER_0_101_1847
*603 FILLER_0_101_1849
*604 FILLER_0_101_1861
*605 FILLER_0_101_1873
*606 FILLER_0_101_1885
*607 FILLER_0_101_1897
*608 FILLER_0_101_1903
*609 FILLER_0_101_1905
*610 FILLER_0_101_1917
*611 FILLER_0_101_1929
*612 FILLER_0_101_193
*613 FILLER_0_101_1941
*614 FILLER_0_101_1953
*615 FILLER_0_101_1959
*616 FILLER_0_101_1961
*617 FILLER_0_101_1973
*618 FILLER_0_101_1985
*619 FILLER_0_101_1997
*620 FILLER_0_101_2009
*621 FILLER_0_101_2015
*622 FILLER_0_101_2017
*623 FILLER_0_101_2029
*624 FILLER_0_101_2041
*625 FILLER_0_101_205
*626 FILLER_0_101_2053
*627 FILLER_0_101_2065
*628 FILLER_0_101_2071
*629 FILLER_0_101_2073
*630 FILLER_0_101_2085
*631 FILLER_0_101_2097
*632 FILLER_0_101_2109
*633 FILLER_0_101_2121
*634 FILLER_0_101_2127
*635 FILLER_0_101_2129
*636 FILLER_0_101_2141
*637 FILLER_0_101_2153
*638 FILLER_0_101_2157
*639 FILLER_0_101_217
*640 FILLER_0_101_223
*641 FILLER_0_101_225
*642 FILLER_0_101_237
*643 FILLER_0_101_249
*644 FILLER_0_101_261
*645 FILLER_0_101_27
*646 FILLER_0_101_273
*647 FILLER_0_101_279
*648 FILLER_0_101_281
*649 FILLER_0_101_293
*650 FILLER_0_101_3
*651 FILLER_0_101_305
*652 FILLER_0_101_317
*653 FILLER_0_101_329
*654 FILLER_0_101_335
*655 FILLER_0_101_337
*656 FILLER_0_101_349
*657 FILLER_0_101_361
*658 FILLER_0_101_373
*659 FILLER_0_101_385
*660 FILLER_0_101_39
*661 FILLER_0_101_391
*662 FILLER_0_101_393
*663 FILLER_0_101_405
*664 FILLER_0_101_417
*665 FILLER_0_101_429
*666 FILLER_0_101_441
*667 FILLER_0_101_447
*668 FILLER_0_101_449
*669 FILLER_0_101_461
*670 FILLER_0_101_473
*671 FILLER_0_101_485
*672 FILLER_0_101_497
*673 FILLER_0_101_503
*674 FILLER_0_101_505
*675 FILLER_0_101_51
*676 FILLER_0_101_517
*677 FILLER_0_101_529
*678 FILLER_0_101_541
*679 FILLER_0_101_55
*680 FILLER_0_101_553
*681 FILLER_0_101_559
*682 FILLER_0_101_561
*683 FILLER_0_101_57
*684 FILLER_0_101_573
*685 FILLER_0_101_585
*686 FILLER_0_101_597
*687 FILLER_0_101_609
*688 FILLER_0_101_615
*689 FILLER_0_101_617
*690 FILLER_0_101_629
*691 FILLER_0_101_641
*692 FILLER_0_101_653
*693 FILLER_0_101_665
*694 FILLER_0_101_671
*695 FILLER_0_101_673
*696 FILLER_0_101_685
*697 FILLER_0_101_69
*698 FILLER_0_101_697
*699 FILLER_0_101_709
*700 FILLER_0_101_721
*701 FILLER_0_101_727
*702 FILLER_0_101_729
*703 FILLER_0_101_741
*704 FILLER_0_101_753
*705 FILLER_0_101_765
*706 FILLER_0_101_777
*707 FILLER_0_101_783
*708 FILLER_0_101_785
*709 FILLER_0_101_797
*710 FILLER_0_101_809
*711 FILLER_0_101_81
*712 FILLER_0_101_821
*713 FILLER_0_101_833
*714 FILLER_0_101_839
*715 FILLER_0_101_841
*716 FILLER_0_101_853
*717 FILLER_0_101_865
*718 FILLER_0_101_877
*719 FILLER_0_101_889
*720 FILLER_0_101_895
*721 FILLER_0_101_897
*722 FILLER_0_101_909
*723 FILLER_0_101_921
*724 FILLER_0_101_93
*725 FILLER_0_101_933
*726 FILLER_0_101_945
*727 FILLER_0_101_951
*728 FILLER_0_101_953
*729 FILLER_0_101_965
*730 FILLER_0_101_977
*731 FILLER_0_101_989
*732 FILLER_0_102_1005
*733 FILLER_0_102_1017
*734 FILLER_0_102_1029
*735 FILLER_0_102_1035
*736 FILLER_0_102_1037
*737 FILLER_0_102_1049
*738 FILLER_0_102_1061
*739 FILLER_0_102_1073
*740 FILLER_0_102_1085
*741 FILLER_0_102_109
*742 FILLER_0_102_1091
*743 FILLER_0_102_1093
*744 FILLER_0_102_1105
*745 FILLER_0_102_1117
*746 FILLER_0_102_1129
*747 FILLER_0_102_1141
*748 FILLER_0_102_1147
*749 FILLER_0_102_1149
*750 FILLER_0_102_1161
*751 FILLER_0_102_1173
*752 FILLER_0_102_1185
*753 FILLER_0_102_1197
*754 FILLER_0_102_1203
*755 FILLER_0_102_1205
*756 FILLER_0_102_121
*757 FILLER_0_102_1217
*758 FILLER_0_102_1229
*759 FILLER_0_102_1241
*760 FILLER_0_102_1253
*761 FILLER_0_102_1259
*762 FILLER_0_102_1261
*763 FILLER_0_102_1273
*764 FILLER_0_102_1285
*765 FILLER_0_102_1297
*766 FILLER_0_102_1309
*767 FILLER_0_102_1315
*768 FILLER_0_102_1317
*769 FILLER_0_102_1329
*770 FILLER_0_102_133
*771 FILLER_0_102_1341
*772 FILLER_0_102_1353
*773 FILLER_0_102_1365
*774 FILLER_0_102_1371
*775 FILLER_0_102_1373
*776 FILLER_0_102_1385
*777 FILLER_0_102_139
*778 FILLER_0_102_1397
*779 FILLER_0_102_1409
*780 FILLER_0_102_141
*781 FILLER_0_102_1421
*782 FILLER_0_102_1427
*783 FILLER_0_102_1429
*784 FILLER_0_102_1441
*785 FILLER_0_102_1453
*786 FILLER_0_102_1465
*787 FILLER_0_102_1477
*788 FILLER_0_102_1483
*789 FILLER_0_102_1485
*790 FILLER_0_102_1497
*791 FILLER_0_102_15
*792 FILLER_0_102_1509
*793 FILLER_0_102_1521
*794 FILLER_0_102_153
*795 FILLER_0_102_1533
*796 FILLER_0_102_1539
*797 FILLER_0_102_1541
*798 FILLER_0_102_1553
*799 FILLER_0_102_1565
*800 FILLER_0_102_1577
*801 FILLER_0_102_1589
*802 FILLER_0_102_1595
*803 FILLER_0_102_1597
*804 FILLER_0_102_1609
*805 FILLER_0_102_1621
*806 FILLER_0_102_1633
*807 FILLER_0_102_1645
*808 FILLER_0_102_165
*809 FILLER_0_102_1651
*810 FILLER_0_102_1653
*811 FILLER_0_102_1665
*812 FILLER_0_102_1677
*813 FILLER_0_102_1689
*814 FILLER_0_102_1701
*815 FILLER_0_102_1707
*816 FILLER_0_102_1709
*817 FILLER_0_102_1721
*818 FILLER_0_102_1733
*819 FILLER_0_102_1745
*820 FILLER_0_102_1757
*821 FILLER_0_102_1763
*822 FILLER_0_102_1765
*823 FILLER_0_102_177
*824 FILLER_0_102_1777
*825 FILLER_0_102_1789
*826 FILLER_0_102_1801
*827 FILLER_0_102_1813
*828 FILLER_0_102_1819
*829 FILLER_0_102_1821
*830 FILLER_0_102_1833
*831 FILLER_0_102_1845
*832 FILLER_0_102_1857
*833 FILLER_0_102_1869
*834 FILLER_0_102_1875
*835 FILLER_0_102_1877
*836 FILLER_0_102_1889
*837 FILLER_0_102_189
*838 FILLER_0_102_1901
*839 FILLER_0_102_1913
*840 FILLER_0_102_1925
*841 FILLER_0_102_1931
*842 FILLER_0_102_1933
*843 FILLER_0_102_1945
*844 FILLER_0_102_195
*845 FILLER_0_102_1957
*846 FILLER_0_102_1969
*847 FILLER_0_102_197
*848 FILLER_0_102_1981
*849 FILLER_0_102_1987
*850 FILLER_0_102_1989
*851 FILLER_0_102_2001
*852 FILLER_0_102_2013
*853 FILLER_0_102_2025
*854 FILLER_0_102_2037
*855 FILLER_0_102_2043
*856 FILLER_0_102_2045
*857 FILLER_0_102_2057
*858 FILLER_0_102_2069
*859 FILLER_0_102_2081
*860 FILLER_0_102_209
*861 FILLER_0_102_2093
*862 FILLER_0_102_2099
*863 FILLER_0_102_2101
*864 FILLER_0_102_2113
*865 FILLER_0_102_2125
*866 FILLER_0_102_2137
*867 FILLER_0_102_2149
*868 FILLER_0_102_2155
*869 FILLER_0_102_2157
*870 FILLER_0_102_221
*871 FILLER_0_102_233
*872 FILLER_0_102_245
*873 FILLER_0_102_251
*874 FILLER_0_102_253
*875 FILLER_0_102_265
*876 FILLER_0_102_27
*877 FILLER_0_102_277
*878 FILLER_0_102_289
*879 FILLER_0_102_29
*880 FILLER_0_102_3
*881 FILLER_0_102_301
*882 FILLER_0_102_307
*883 FILLER_0_102_309
*884 FILLER_0_102_321
*885 FILLER_0_102_333
*886 FILLER_0_102_345
*887 FILLER_0_102_357
*888 FILLER_0_102_363
*889 FILLER_0_102_365
*890 FILLER_0_102_377
*891 FILLER_0_102_389
*892 FILLER_0_102_401
*893 FILLER_0_102_41
*894 FILLER_0_102_413
*895 FILLER_0_102_419
*896 FILLER_0_102_421
*897 FILLER_0_102_433
*898 FILLER_0_102_445
*899 FILLER_0_102_457
*900 FILLER_0_102_469
*901 FILLER_0_102_475
*902 FILLER_0_102_477
*903 FILLER_0_102_489
*904 FILLER_0_102_501
*905 FILLER_0_102_513
*906 FILLER_0_102_525
*907 FILLER_0_102_53
*908 FILLER_0_102_531
*909 FILLER_0_102_533
*910 FILLER_0_102_545
*911 FILLER_0_102_557
*912 FILLER_0_102_569
*913 FILLER_0_102_581
*914 FILLER_0_102_587
*915 FILLER_0_102_589
*916 FILLER_0_102_601
*917 FILLER_0_102_613
*918 FILLER_0_102_625
*919 FILLER_0_102_637
*920 FILLER_0_102_643
*921 FILLER_0_102_645
*922 FILLER_0_102_65
*923 FILLER_0_102_657
*924 FILLER_0_102_669
*925 FILLER_0_102_681
*926 FILLER_0_102_693
*927 FILLER_0_102_699
*928 FILLER_0_102_701
*929 FILLER_0_102_713
*930 FILLER_0_102_725
*931 FILLER_0_102_737
*932 FILLER_0_102_749
*933 FILLER_0_102_755
*934 FILLER_0_102_757
*935 FILLER_0_102_769
*936 FILLER_0_102_77
*937 FILLER_0_102_781
*938 FILLER_0_102_793
*939 FILLER_0_102_805
*940 FILLER_0_102_811
*941 FILLER_0_102_813
*942 FILLER_0_102_825
*943 FILLER_0_102_83
*944 FILLER_0_102_837
*945 FILLER_0_102_849
*946 FILLER_0_102_85
*947 FILLER_0_102_861
*948 FILLER_0_102_867
*949 FILLER_0_102_869
*950 FILLER_0_102_881
*951 FILLER_0_102_893
*952 FILLER_0_102_905
*953 FILLER_0_102_917
*954 FILLER_0_102_923
*955 FILLER_0_102_925
*956 FILLER_0_102_937
*957 FILLER_0_102_949
*958 FILLER_0_102_961
*959 FILLER_0_102_97
*960 FILLER_0_102_973
*961 FILLER_0_102_979
*962 FILLER_0_102_981
*963 FILLER_0_102_993
*964 FILLER_0_103_1001
*965 FILLER_0_103_1007
*966 FILLER_0_103_1009
*967 FILLER_0_103_1021
*968 FILLER_0_103_1033
*969 FILLER_0_103_1045
*970 FILLER_0_103_105
*971 FILLER_0_103_1057
*972 FILLER_0_103_1063
*973 FILLER_0_103_1065
*974 FILLER_0_103_1077
*975 FILLER_0_103_1089
*976 FILLER_0_103_1101
*977 FILLER_0_103_111
*978 FILLER_0_103_1113
*979 FILLER_0_103_1119
*980 FILLER_0_103_1121
*981 FILLER_0_103_113
*982 FILLER_0_103_1133
*983 FILLER_0_103_1145
*984 FILLER_0_103_1157
*985 FILLER_0_103_1169
*986 FILLER_0_103_1175
*987 FILLER_0_103_1177
*988 FILLER_0_103_1189
*989 FILLER_0_103_1201
*990 FILLER_0_103_1213
*991 FILLER_0_103_1225
*992 FILLER_0_103_1231
*993 FILLER_0_103_1233
*994 FILLER_0_103_1245
*995 FILLER_0_103_125
*996 FILLER_0_103_1257
*997 FILLER_0_103_1269
*998 FILLER_0_103_1281
*999 FILLER_0_103_1287
*1000 FILLER_0_103_1289
*1001 FILLER_0_103_1301
*1002 FILLER_0_103_1313
*1003 FILLER_0_103_1325
*1004 FILLER_0_103_1337
*1005 FILLER_0_103_1343
*1006 FILLER_0_103_1345
*1007 FILLER_0_103_1357
*1008 FILLER_0_103_1369
*1009 FILLER_0_103_137
*1010 FILLER_0_103_1381
*1011 FILLER_0_103_1393
*1012 FILLER_0_103_1399
*1013 FILLER_0_103_1401
*1014 FILLER_0_103_1413
*1015 FILLER_0_103_1425
*1016 FILLER_0_103_1437
*1017 FILLER_0_103_1449
*1018 FILLER_0_103_1455
*1019 FILLER_0_103_1457
*1020 FILLER_0_103_1469
*1021 FILLER_0_103_1481
*1022 FILLER_0_103_149
*1023 FILLER_0_103_1493
*1024 FILLER_0_103_15
*1025 FILLER_0_103_1505
*1026 FILLER_0_103_1511
*1027 FILLER_0_103_1513
*1028 FILLER_0_103_1525
*1029 FILLER_0_103_1537
*1030 FILLER_0_103_1549
*1031 FILLER_0_103_1561
*1032 FILLER_0_103_1567
*1033 FILLER_0_103_1569
*1034 FILLER_0_103_1581
*1035 FILLER_0_103_1593
*1036 FILLER_0_103_1605
*1037 FILLER_0_103_161
*1038 FILLER_0_103_1617
*1039 FILLER_0_103_1623
*1040 FILLER_0_103_1625
*1041 FILLER_0_103_1637
*1042 FILLER_0_103_1649
*1043 FILLER_0_103_1661
*1044 FILLER_0_103_167
*1045 FILLER_0_103_1673
*1046 FILLER_0_103_1679
*1047 FILLER_0_103_1681
*1048 FILLER_0_103_169
*1049 FILLER_0_103_1693
*1050 FILLER_0_103_1705
*1051 FILLER_0_103_1717
*1052 FILLER_0_103_1729
*1053 FILLER_0_103_1735
*1054 FILLER_0_103_1737
*1055 FILLER_0_103_1749
*1056 FILLER_0_103_1761
*1057 FILLER_0_103_1773
*1058 FILLER_0_103_1785
*1059 FILLER_0_103_1791
*1060 FILLER_0_103_1793
*1061 FILLER_0_103_1805
*1062 FILLER_0_103_181
*1063 FILLER_0_103_1817
*1064 FILLER_0_103_1829
*1065 FILLER_0_103_1841
*1066 FILLER_0_103_1847
*1067 FILLER_0_103_1849
*1068 FILLER_0_103_1861
*1069 FILLER_0_103_1873
*1070 FILLER_0_103_1885
*1071 FILLER_0_103_1897
*1072 FILLER_0_103_1903
*1073 FILLER_0_103_1905
*1074 FILLER_0_103_1917
*1075 FILLER_0_103_1929
*1076 FILLER_0_103_193
*1077 FILLER_0_103_1941
*1078 FILLER_0_103_1953
*1079 FILLER_0_103_1959
*1080 FILLER_0_103_1961
*1081 FILLER_0_103_1973
*1082 FILLER_0_103_1985
*1083 FILLER_0_103_1997
*1084 FILLER_0_103_2009
*1085 FILLER_0_103_2015
*1086 FILLER_0_103_2017
*1087 FILLER_0_103_2029
*1088 FILLER_0_103_2041
*1089 FILLER_0_103_205
*1090 FILLER_0_103_2053
*1091 FILLER_0_103_2065
*1092 FILLER_0_103_2071
*1093 FILLER_0_103_2073
*1094 FILLER_0_103_2085
*1095 FILLER_0_103_2097
*1096 FILLER_0_103_2109
*1097 FILLER_0_103_2121
*1098 FILLER_0_103_2127
*1099 FILLER_0_103_2129
*1100 FILLER_0_103_2141
*1101 FILLER_0_103_2153
*1102 FILLER_0_103_2157
*1103 FILLER_0_103_217
*1104 FILLER_0_103_223
*1105 FILLER_0_103_225
*1106 FILLER_0_103_237
*1107 FILLER_0_103_249
*1108 FILLER_0_103_261
*1109 FILLER_0_103_27
*1110 FILLER_0_103_273
*1111 FILLER_0_103_279
*1112 FILLER_0_103_281
*1113 FILLER_0_103_293
*1114 FILLER_0_103_3
*1115 FILLER_0_103_305
*1116 FILLER_0_103_317
*1117 FILLER_0_103_329
*1118 FILLER_0_103_335
*1119 FILLER_0_103_337
*1120 FILLER_0_103_349
*1121 FILLER_0_103_361
*1122 FILLER_0_103_373
*1123 FILLER_0_103_385
*1124 FILLER_0_103_39
*1125 FILLER_0_103_391
*1126 FILLER_0_103_393
*1127 FILLER_0_103_405
*1128 FILLER_0_103_417
*1129 FILLER_0_103_429
*1130 FILLER_0_103_441
*1131 FILLER_0_103_447
*1132 FILLER_0_103_449
*1133 FILLER_0_103_461
*1134 FILLER_0_103_473
*1135 FILLER_0_103_485
*1136 FILLER_0_103_497
*1137 FILLER_0_103_503
*1138 FILLER_0_103_505
*1139 FILLER_0_103_51
*1140 FILLER_0_103_517
*1141 FILLER_0_103_529
*1142 FILLER_0_103_541
*1143 FILLER_0_103_55
*1144 FILLER_0_103_553
*1145 FILLER_0_103_559
*1146 FILLER_0_103_561
*1147 FILLER_0_103_57
*1148 FILLER_0_103_573
*1149 FILLER_0_103_585
*1150 FILLER_0_103_597
*1151 FILLER_0_103_609
*1152 FILLER_0_103_615
*1153 FILLER_0_103_617
*1154 FILLER_0_103_629
*1155 FILLER_0_103_641
*1156 FILLER_0_103_653
*1157 FILLER_0_103_665
*1158 FILLER_0_103_671
*1159 FILLER_0_103_673
*1160 FILLER_0_103_685
*1161 FILLER_0_103_69
*1162 FILLER_0_103_697
*1163 FILLER_0_103_709
*1164 FILLER_0_103_721
*1165 FILLER_0_103_727
*1166 FILLER_0_103_729
*1167 FILLER_0_103_741
*1168 FILLER_0_103_753
*1169 FILLER_0_103_765
*1170 FILLER_0_103_777
*1171 FILLER_0_103_783
*1172 FILLER_0_103_785
*1173 FILLER_0_103_797
*1174 FILLER_0_103_809
*1175 FILLER_0_103_81
*1176 FILLER_0_103_821
*1177 FILLER_0_103_833
*1178 FILLER_0_103_839
*1179 FILLER_0_103_841
*1180 FILLER_0_103_853
*1181 FILLER_0_103_865
*1182 FILLER_0_103_877
*1183 FILLER_0_103_889
*1184 FILLER_0_103_895
*1185 FILLER_0_103_897
*1186 FILLER_0_103_909
*1187 FILLER_0_103_921
*1188 FILLER_0_103_93
*1189 FILLER_0_103_933
*1190 FILLER_0_103_945
*1191 FILLER_0_103_951
*1192 FILLER_0_103_953
*1193 FILLER_0_103_965
*1194 FILLER_0_103_977
*1195 FILLER_0_103_989
*1196 FILLER_0_104_1005
*1197 FILLER_0_104_1017
*1198 FILLER_0_104_1029
*1199 FILLER_0_104_1035
*1200 FILLER_0_104_1037
*1201 FILLER_0_104_1049
*1202 FILLER_0_104_1061
*1203 FILLER_0_104_1073
*1204 FILLER_0_104_1085
*1205 FILLER_0_104_109
*1206 FILLER_0_104_1091
*1207 FILLER_0_104_1093
*1208 FILLER_0_104_1105
*1209 FILLER_0_104_1117
*1210 FILLER_0_104_1129
*1211 FILLER_0_104_1141
*1212 FILLER_0_104_1147
*1213 FILLER_0_104_1149
*1214 FILLER_0_104_1161
*1215 FILLER_0_104_1173
*1216 FILLER_0_104_1185
*1217 FILLER_0_104_1197
*1218 FILLER_0_104_1203
*1219 FILLER_0_104_1205
*1220 FILLER_0_104_121
*1221 FILLER_0_104_1217
*1222 FILLER_0_104_1229
*1223 FILLER_0_104_1241
*1224 FILLER_0_104_1253
*1225 FILLER_0_104_1259
*1226 FILLER_0_104_1261
*1227 FILLER_0_104_1273
*1228 FILLER_0_104_1285
*1229 FILLER_0_104_1297
*1230 FILLER_0_104_1309
*1231 FILLER_0_104_1315
*1232 FILLER_0_104_1317
*1233 FILLER_0_104_1329
*1234 FILLER_0_104_133
*1235 FILLER_0_104_1341
*1236 FILLER_0_104_1353
*1237 FILLER_0_104_1365
*1238 FILLER_0_104_1371
*1239 FILLER_0_104_1373
*1240 FILLER_0_104_1385
*1241 FILLER_0_104_139
*1242 FILLER_0_104_1397
*1243 FILLER_0_104_1409
*1244 FILLER_0_104_141
*1245 FILLER_0_104_1421
*1246 FILLER_0_104_1427
*1247 FILLER_0_104_1429
*1248 FILLER_0_104_1441
*1249 FILLER_0_104_1453
*1250 FILLER_0_104_1465
*1251 FILLER_0_104_1477
*1252 FILLER_0_104_1483
*1253 FILLER_0_104_1485
*1254 FILLER_0_104_1497
*1255 FILLER_0_104_15
*1256 FILLER_0_104_1509
*1257 FILLER_0_104_1521
*1258 FILLER_0_104_153
*1259 FILLER_0_104_1533
*1260 FILLER_0_104_1539
*1261 FILLER_0_104_1541
*1262 FILLER_0_104_1553
*1263 FILLER_0_104_1565
*1264 FILLER_0_104_1577
*1265 FILLER_0_104_1589
*1266 FILLER_0_104_1595
*1267 FILLER_0_104_1597
*1268 FILLER_0_104_1609
*1269 FILLER_0_104_1621
*1270 FILLER_0_104_1633
*1271 FILLER_0_104_1645
*1272 FILLER_0_104_165
*1273 FILLER_0_104_1651
*1274 FILLER_0_104_1653
*1275 FILLER_0_104_1665
*1276 FILLER_0_104_1677
*1277 FILLER_0_104_1689
*1278 FILLER_0_104_1701
*1279 FILLER_0_104_1707
*1280 FILLER_0_104_1709
*1281 FILLER_0_104_1721
*1282 FILLER_0_104_1733
*1283 FILLER_0_104_1745
*1284 FILLER_0_104_1757
*1285 FILLER_0_104_1763
*1286 FILLER_0_104_1765
*1287 FILLER_0_104_177
*1288 FILLER_0_104_1777
*1289 FILLER_0_104_1789
*1290 FILLER_0_104_1801
*1291 FILLER_0_104_1813
*1292 FILLER_0_104_1819
*1293 FILLER_0_104_1821
*1294 FILLER_0_104_1833
*1295 FILLER_0_104_1845
*1296 FILLER_0_104_1857
*1297 FILLER_0_104_1869
*1298 FILLER_0_104_1875
*1299 FILLER_0_104_1877
*1300 FILLER_0_104_1889
*1301 FILLER_0_104_189
*1302 FILLER_0_104_1901
*1303 FILLER_0_104_1913
*1304 FILLER_0_104_1925
*1305 FILLER_0_104_1931
*1306 FILLER_0_104_1933
*1307 FILLER_0_104_1945
*1308 FILLER_0_104_195
*1309 FILLER_0_104_1957
*1310 FILLER_0_104_1969
*1311 FILLER_0_104_197
*1312 FILLER_0_104_1981
*1313 FILLER_0_104_1987
*1314 FILLER_0_104_1989
*1315 FILLER_0_104_2001
*1316 FILLER_0_104_2013
*1317 FILLER_0_104_2025
*1318 FILLER_0_104_2037
*1319 FILLER_0_104_2043
*1320 FILLER_0_104_2045
*1321 FILLER_0_104_2057
*1322 FILLER_0_104_2069
*1323 FILLER_0_104_2081
*1324 FILLER_0_104_209
*1325 FILLER_0_104_2093
*1326 FILLER_0_104_2099
*1327 FILLER_0_104_2101
*1328 FILLER_0_104_2113
*1329 FILLER_0_104_2125
*1330 FILLER_0_104_2137
*1331 FILLER_0_104_2149
*1332 FILLER_0_104_2155
*1333 FILLER_0_104_2157
*1334 FILLER_0_104_221
*1335 FILLER_0_104_233
*1336 FILLER_0_104_245
*1337 FILLER_0_104_251
*1338 FILLER_0_104_253
*1339 FILLER_0_104_265
*1340 FILLER_0_104_27
*1341 FILLER_0_104_277
*1342 FILLER_0_104_289
*1343 FILLER_0_104_29